# WEL package for  MODFLOW-2005, generated by Flopy.
         2         0 
         2         0 # stress period 1
         1        15        40         -5000.0
         1        21        37         -5000.0
