# Name file for MODFLOW-2005, generated by Flopy version 3.2.12.
#xll:-63.687336; yll:-6017.393205; rotation:0; proj4_str:+init=EPSG:4326; units:meters; lenuni:2;  ;start_datetime:2015-01-01
LIST               2  modflowtest.list
DIS               11  modflowtest.dis 
BAS6              13  modflowtest.bas 
GHB               23  modflowtest.ghb 
WEL               20  modflowtest.wel 
LPF               15  modflowtest.lpf 
PCG               27  modflowtest.pcg 
OC                14  modflowtest.oc 
DATA(BINARY)      51  modflowtest.hds REPLACE
DATA(BINARY)      52  modflowtest.ddn REPLACE
