# DIS package for  MODFLOW-2005, generated by Flopy.
         1        40        75         1         4         2
  0
CONSTANT    1.494740E+02                           #delr                          
CONSTANT    1.496520E+02                           #delc                          
INTERNAL               1  (75E15.6) -1 #model_top                     
   4.800000E+02   4.800000E+02   4.800000E+02   4.800000E+02   4.800000E+02   4.800000E+02   4.800000E+02   4.800000E+02   4.800000E+02   4.800000E+02   4.800000E+02   4.800000E+02   4.800000E+02   4.800000E+02   4.800000E+02   4.800000E+02   4.800000E+02   4.800000E+02   4.800000E+02   4.800000E+02   4.800000E+02   4.800000E+02   4.800000E+02   4.800000E+02   4.800000E+02   4.800000E+02   4.800000E+02   4.800000E+02   4.800000E+02   4.800000E+02   4.800000E+02   4.800000E+02   4.800000E+02   4.800000E+02   4.800000E+02   4.800000E+02   4.800000E+02   4.800000E+02   4.800000E+02   4.800000E+02   4.800000E+02   4.800000E+02   4.800000E+02   4.800000E+02   4.800000E+02   4.800000E+02   4.800000E+02   4.800000E+02   4.800000E+02   4.800000E+02   4.800000E+02   4.800000E+02   4.800000E+02   4.800000E+02   4.800000E+02   4.800000E+02   4.800000E+02   4.800000E+02   4.800000E+02   4.800000E+02   4.800000E+02   4.800000E+02   4.800000E+02   4.800000E+02   4.800000E+02   4.800000E+02   4.800000E+02   4.800000E+02   4.800000E+02   4.800000E+02   4.800000E+02   4.800000E+02   4.800000E+02   4.800000E+02   4.800000E+02
   4.800000E+02   4.800000E+02   4.800000E+02   4.800000E+02   4.800000E+02   4.800000E+02   4.800000E+02   4.800000E+02   4.800000E+02   4.800000E+02   4.800000E+02   4.800000E+02   4.800000E+02   4.800000E+02   4.800000E+02   4.800000E+02   4.800000E+02   4.800000E+02   4.800000E+02   4.800000E+02   4.800000E+02   4.800000E+02   4.800000E+02   4.800000E+02   4.800000E+02   4.800000E+02   4.800000E+02   4.800000E+02   4.800000E+02   4.800000E+02   4.800000E+02   4.800000E+02   4.800000E+02   4.800000E+02   4.800000E+02   4.800000E+02   4.800000E+02   4.800000E+02   4.800000E+02   4.800000E+02   4.800000E+02   4.800000E+02   4.800000E+02   4.800000E+02   4.800000E+02   4.800000E+02   4.800000E+02   4.800000E+02   4.800000E+02   4.800000E+02   4.800000E+02   4.800000E+02   4.800000E+02   4.800000E+02   4.800000E+02   4.800000E+02   4.800000E+02   4.800000E+02   4.800000E+02   4.800000E+02   4.800000E+02   4.800000E+02   4.800000E+02   4.800000E+02   4.800000E+02   4.800000E+02   4.800000E+02   4.800000E+02   4.800000E+02   4.800000E+02   4.800000E+02   4.800000E+02   4.800000E+02   4.800000E+02   4.800000E+02
   4.800000E+02   4.800000E+02   4.800000E+02   4.800000E+02   4.800000E+02   4.800000E+02   4.800000E+02   4.800000E+02   4.800000E+02   4.800000E+02   4.800000E+02   4.800000E+02   4.800000E+02   4.800000E+02   4.800000E+02   4.800000E+02   4.800000E+02   4.800000E+02   4.800000E+02   4.800000E+02   4.800000E+02   4.800000E+02   4.800000E+02   4.800000E+02   4.800000E+02   4.800000E+02   4.800000E+02   4.800000E+02   4.800000E+02   4.800000E+02   4.800000E+02   4.800000E+02   4.800000E+02   4.800000E+02   4.800000E+02   4.800000E+02   4.800000E+02   4.800000E+02   4.800000E+02   4.800000E+02   4.800000E+02   4.800000E+02   4.800000E+02   4.800000E+02   4.800000E+02   4.800000E+02   4.800000E+02   4.800000E+02   4.800000E+02   4.800000E+02   4.800000E+02   4.800000E+02   4.800000E+02   4.800000E+02   4.800000E+02   4.800000E+02   4.800000E+02   4.800000E+02   4.800000E+02   4.800000E+02   4.800000E+02   4.800000E+02   4.800000E+02   4.800000E+02   4.800000E+02   4.800000E+02   4.800000E+02   4.800000E+02   4.800000E+02   4.800000E+02   4.800000E+02   4.800000E+02   4.800000E+02   4.800000E+02   4.800000E+02
   4.800000E+02   4.800000E+02   4.800000E+02   4.800000E+02   4.800000E+02   4.800000E+02   4.800000E+02   4.800000E+02   4.800000E+02   4.800000E+02   4.800000E+02   4.800000E+02   4.800000E+02   4.800000E+02   4.800000E+02   4.800000E+02   4.800000E+02   4.800000E+02   4.800000E+02   4.800000E+02   4.800000E+02   4.800000E+02   4.800000E+02   4.800000E+02   4.800000E+02   4.800000E+02   4.800000E+02   4.800000E+02   4.800000E+02   4.800000E+02   4.800000E+02   4.800000E+02   4.800000E+02   4.800000E+02   4.800000E+02   4.800000E+02   4.800000E+02   4.800000E+02   4.800000E+02   4.800000E+02   4.800000E+02   4.800000E+02   4.800000E+02   4.800000E+02   4.800000E+02   4.800000E+02   4.800000E+02   4.800000E+02   4.800000E+02   4.800000E+02   4.800000E+02   4.800000E+02   4.800000E+02   4.800000E+02   4.800000E+02   4.800000E+02   4.800000E+02   4.800000E+02   4.800000E+02   4.800000E+02   4.800000E+02   4.800000E+02   4.800000E+02   4.800000E+02   4.800000E+02   4.800000E+02   4.800000E+02   4.800000E+02   4.800000E+02   4.800000E+02   4.800000E+02   4.800000E+02   4.800000E+02   4.800000E+02   4.800000E+02
   4.800000E+02   4.800000E+02   4.800000E+02   4.800000E+02   4.800000E+02   4.800000E+02   4.800000E+02   4.800000E+02   4.800000E+02   4.800000E+02   4.800000E+02   4.800000E+02   4.800000E+02   4.800000E+02   4.800000E+02   4.800000E+02   4.800000E+02   4.800000E+02   4.800000E+02   4.800000E+02   4.800000E+02   4.800000E+02   4.800000E+02   4.800000E+02   4.800000E+02   4.800000E+02   4.800000E+02   4.800000E+02   4.800000E+02   4.800000E+02   4.800000E+02   4.800000E+02   4.800000E+02   4.800000E+02   4.800000E+02   4.800000E+02   4.800000E+02   4.800000E+02   4.800000E+02   4.800000E+02   4.800000E+02   4.800000E+02   4.800000E+02   4.800000E+02   4.800000E+02   4.800000E+02   4.800000E+02   4.800000E+02   4.800000E+02   4.800000E+02   4.800000E+02   4.800000E+02   4.800000E+02   4.800000E+02   4.800000E+02   4.800000E+02   4.800000E+02   4.800000E+02   4.800000E+02   4.800000E+02   4.800000E+02   4.800000E+02   4.800000E+02   4.800000E+02   4.800000E+02   4.800000E+02   4.800000E+02   4.800000E+02   4.800000E+02   4.800000E+02   4.800000E+02   4.800000E+02   4.800000E+02   4.800000E+02   4.800000E+02
   4.800000E+02   4.800000E+02   4.800000E+02   4.800000E+02   4.800000E+02   4.800000E+02   4.800000E+02   4.800000E+02   4.800000E+02   4.800000E+02   4.800000E+02   4.800000E+02   4.800000E+02   4.800000E+02   4.800000E+02   4.800000E+02   4.800000E+02   4.800000E+02   4.800000E+02   4.800000E+02   4.800000E+02   4.800000E+02   4.800000E+02   4.800000E+02   4.800000E+02   4.800000E+02   4.800000E+02   4.800000E+02   4.800000E+02   4.800000E+02   4.800000E+02   4.800000E+02   4.800000E+02   4.800000E+02   4.800000E+02   4.800000E+02   4.800000E+02   4.800000E+02   4.800000E+02   4.800000E+02   4.800000E+02   4.800000E+02   4.800000E+02   4.800000E+02   4.800000E+02   4.800000E+02   4.800000E+02   4.800000E+02   4.800000E+02   4.800000E+02   4.800000E+02   4.800000E+02   4.800000E+02   4.800000E+02   4.800000E+02   4.800000E+02   4.800000E+02   4.800000E+02   4.800000E+02   4.800000E+02   4.800000E+02   4.800000E+02   4.800000E+02   4.800000E+02   4.800000E+02   4.800000E+02   4.800000E+02   4.800000E+02   4.800000E+02   4.800000E+02   4.800000E+02   4.800000E+02   4.800000E+02   4.800000E+02   4.800000E+02
   4.800000E+02   4.800000E+02   4.800000E+02   4.800000E+02   4.800000E+02   4.800000E+02   4.800000E+02   4.800000E+02   4.800000E+02   4.800000E+02   4.800000E+02   4.800000E+02   4.800000E+02   4.800000E+02   4.800000E+02   4.800000E+02   4.800000E+02   4.800000E+02   4.800000E+02   4.800000E+02   4.800000E+02   4.800000E+02   4.800000E+02   4.800000E+02   4.800000E+02   4.800000E+02   4.800000E+02   4.800000E+02   4.800000E+02   4.800000E+02   4.800000E+02   4.800000E+02   4.800000E+02   4.800000E+02   4.800000E+02   4.800000E+02   4.800000E+02   4.800000E+02   4.800000E+02   4.800000E+02   4.800000E+02   4.800000E+02   4.800000E+02   4.800000E+02   4.800000E+02   4.800000E+02   4.800000E+02   4.800000E+02   4.800000E+02   4.800000E+02   4.800000E+02   4.800000E+02   4.800000E+02   4.800000E+02   4.800000E+02   4.800000E+02   4.800000E+02   4.800000E+02   4.800000E+02   4.800000E+02   4.800000E+02   4.800000E+02   4.800000E+02   4.800000E+02   4.800000E+02   4.800000E+02   4.800000E+02   4.800000E+02   4.800000E+02   4.800000E+02   4.800000E+02   4.800000E+02   4.800000E+02   4.800000E+02   4.800000E+02
   4.800000E+02   4.800000E+02   4.800000E+02   4.800000E+02   4.800000E+02   4.800000E+02   4.800000E+02   4.800000E+02   4.800000E+02   4.800000E+02   4.800000E+02   4.800000E+02   4.800000E+02   4.800000E+02   4.800000E+02   4.800000E+02   4.800000E+02   4.800000E+02   4.800000E+02   4.800000E+02   4.800000E+02   4.800000E+02   4.800000E+02   4.800000E+02   4.800000E+02   4.800000E+02   4.800000E+02   4.800000E+02   4.800000E+02   4.800000E+02   4.800000E+02   4.800000E+02   4.800000E+02   4.800000E+02   4.800000E+02   4.800000E+02   4.800000E+02   4.800000E+02   4.800000E+02   4.800000E+02   4.800000E+02   4.800000E+02   4.800000E+02   4.800000E+02   4.800000E+02   4.800000E+02   4.800000E+02   4.800000E+02   4.800000E+02   4.800000E+02   4.800000E+02   4.800000E+02   4.800000E+02   4.800000E+02   4.800000E+02   4.800000E+02   4.800000E+02   4.800000E+02   4.800000E+02   4.800000E+02   4.800000E+02   4.800000E+02   4.800000E+02   4.800000E+02   4.800000E+02   4.800000E+02   4.800000E+02   4.800000E+02   4.800000E+02   4.800000E+02   4.800000E+02   4.800000E+02   4.800000E+02   4.800000E+02   4.800000E+02
   4.800000E+02   4.800000E+02   4.800000E+02   4.800000E+02   4.800000E+02   4.800000E+02   4.800000E+02   4.800000E+02   4.800000E+02   4.800000E+02   4.800000E+02   4.800000E+02   4.800000E+02   4.800000E+02   4.800000E+02   4.800000E+02   4.800000E+02   4.800000E+02   4.800000E+02   4.800000E+02   4.800000E+02   4.800000E+02   4.800000E+02   4.800000E+02   4.800000E+02   4.800000E+02   4.800000E+02   4.800000E+02   4.800000E+02   4.800000E+02   4.800000E+02   4.800000E+02   4.800000E+02   4.800000E+02   4.800000E+02   4.800000E+02   4.800000E+02   4.800000E+02   4.800000E+02   4.800000E+02   4.800000E+02   4.800000E+02   4.800000E+02   4.800000E+02   4.800000E+02   4.800000E+02   4.800000E+02   4.800000E+02   4.800000E+02   4.800000E+02   4.800000E+02   4.800000E+02   4.800000E+02   4.800000E+02   4.800000E+02   4.800000E+02   4.800000E+02   4.800000E+02   4.800000E+02   4.800000E+02   4.800000E+02   4.800000E+02   4.800000E+02   4.800000E+02   4.800000E+02   4.800000E+02   4.800000E+02   4.800000E+02   4.800000E+02   4.800000E+02   4.800000E+02   4.800000E+02   4.800000E+02   4.800000E+02   4.800000E+02
   4.800000E+02   4.800000E+02   4.800000E+02   4.800000E+02   4.800000E+02   4.800000E+02   4.800000E+02   4.800000E+02   4.800000E+02   4.800000E+02   4.800000E+02   4.800000E+02   4.800000E+02   4.800000E+02   4.800000E+02   4.800000E+02   4.800000E+02   4.800000E+02   4.800000E+02   4.800000E+02   4.800000E+02   4.800000E+02   4.800000E+02   4.800000E+02   4.800000E+02   4.800000E+02   4.800000E+02   4.800000E+02   4.800000E+02   4.800000E+02   4.800000E+02   4.800000E+02   4.800000E+02   4.800000E+02   4.800000E+02   4.800000E+02   4.800000E+02   4.800000E+02   4.800000E+02   4.800000E+02   4.800000E+02   4.800000E+02   4.800000E+02   4.800000E+02   4.800000E+02   4.800000E+02   4.800000E+02   4.800000E+02   4.800000E+02   4.800000E+02   4.800000E+02   4.800000E+02   4.800000E+02   4.800000E+02   4.800000E+02   4.800000E+02   4.800000E+02   4.800000E+02   4.800000E+02   4.800000E+02   4.800000E+02   4.800000E+02   4.800000E+02   4.800000E+02   4.800000E+02   4.800000E+02   4.800000E+02   4.800000E+02   4.800000E+02   4.800000E+02   4.800000E+02   4.800000E+02   4.800000E+02   4.800000E+02   4.800000E+02
   4.800000E+02   4.800000E+02   4.800000E+02   4.800000E+02   4.800000E+02   4.800000E+02   4.800000E+02   4.800000E+02   4.800000E+02   4.800000E+02   4.800000E+02   4.800000E+02   4.800000E+02   4.800000E+02   4.800000E+02   4.800000E+02   4.800000E+02   4.800000E+02   4.800000E+02   4.800000E+02   4.800000E+02   4.800000E+02   4.800000E+02   4.800000E+02   4.800000E+02   4.800000E+02   4.800000E+02   4.800000E+02   4.800000E+02   4.800000E+02   4.800000E+02   4.800000E+02   4.800000E+02   4.800000E+02   4.800000E+02   4.800000E+02   4.800000E+02   4.800000E+02   4.800000E+02   4.800000E+02   4.800000E+02   4.800000E+02   4.800000E+02   4.800000E+02   4.800000E+02   4.800000E+02   4.800000E+02   4.800000E+02   4.800000E+02   4.800000E+02   4.800000E+02   4.800000E+02   4.800000E+02   4.800000E+02   4.800000E+02   4.800000E+02   4.800000E+02   4.800000E+02   4.800000E+02   4.800000E+02   4.800000E+02   4.800000E+02   4.800000E+02   4.800000E+02   4.800000E+02   4.800000E+02   4.800000E+02   4.800000E+02   4.800000E+02   4.800000E+02   4.800000E+02   4.800000E+02   4.800000E+02   4.800000E+02   4.800000E+02
   4.800000E+02   4.800000E+02   4.800000E+02   4.800000E+02   4.800000E+02   4.800000E+02   4.800000E+02   4.800000E+02   4.800000E+02   4.800000E+02   4.800000E+02   4.800000E+02   4.800000E+02   4.800000E+02   4.800000E+02   4.800000E+02   4.800000E+02   4.800000E+02   4.800000E+02   4.800000E+02   4.800000E+02   4.800000E+02   4.800000E+02   4.800000E+02   4.800000E+02   4.800000E+02   4.800000E+02   4.800000E+02   4.800000E+02   4.800000E+02   4.800000E+02   4.800000E+02   4.800000E+02   4.800000E+02   4.800000E+02   4.800000E+02   4.800000E+02   4.800000E+02   4.800000E+02   4.800000E+02   4.800000E+02   4.800000E+02   4.800000E+02   4.800000E+02   4.800000E+02   4.800000E+02   4.800000E+02   4.800000E+02   4.800000E+02   4.800000E+02   4.800000E+02   4.800000E+02   4.800000E+02   4.800000E+02   4.800000E+02   4.800000E+02   4.800000E+02   4.800000E+02   4.800000E+02   4.800000E+02   4.800000E+02   4.800000E+02   4.800000E+02   4.800000E+02   4.800000E+02   4.800000E+02   4.800000E+02   4.800000E+02   4.800000E+02   4.800000E+02   4.800000E+02   4.800000E+02   4.800000E+02   4.800000E+02   4.800000E+02
   4.800000E+02   4.800000E+02   4.800000E+02   4.800000E+02   4.800000E+02   4.800000E+02   4.800000E+02   4.800000E+02   4.800000E+02   4.800000E+02   4.800000E+02   4.800000E+02   4.800000E+02   4.800000E+02   4.800000E+02   4.800000E+02   4.800000E+02   4.800000E+02   4.800000E+02   4.800000E+02   4.800000E+02   4.800000E+02   4.800000E+02   4.800000E+02   4.800000E+02   4.800000E+02   4.800000E+02   4.800000E+02   4.800000E+02   4.800000E+02   4.800000E+02   4.800000E+02   4.800000E+02   4.800000E+02   4.800000E+02   4.800000E+02   4.800000E+02   4.800000E+02   4.800000E+02   4.800000E+02   4.800000E+02   4.800000E+02   4.800000E+02   4.800000E+02   4.800000E+02   4.800000E+02   4.800000E+02   4.800000E+02   4.800000E+02   4.800000E+02   4.800000E+02   4.800000E+02   4.800000E+02   4.800000E+02   4.800000E+02   4.800000E+02   4.800000E+02   4.800000E+02   4.800000E+02   4.800000E+02   4.800000E+02   4.800000E+02   4.800000E+02   4.800000E+02   4.800000E+02   4.800000E+02   4.800000E+02   4.800000E+02   4.800000E+02   4.800000E+02   4.800000E+02   4.800000E+02   4.800000E+02   4.800000E+02   4.800000E+02
   4.800000E+02   4.800000E+02   4.800000E+02   4.800000E+02   4.800000E+02   4.800000E+02   4.800000E+02   4.800000E+02   4.800000E+02   4.800000E+02   4.800000E+02   4.800000E+02   4.800000E+02   4.800000E+02   4.800000E+02   4.800000E+02   4.800000E+02   4.800000E+02   4.800000E+02   4.800000E+02   4.800000E+02   4.800000E+02   4.800000E+02   4.800000E+02   4.800000E+02   4.800000E+02   4.800000E+02   4.800000E+02   4.800000E+02   4.800000E+02   4.800000E+02   4.800000E+02   4.800000E+02   4.800000E+02   4.800000E+02   4.800000E+02   4.800000E+02   4.800000E+02   4.800000E+02   4.800000E+02   4.800000E+02   4.800000E+02   4.800000E+02   4.800000E+02   4.800000E+02   4.800000E+02   4.800000E+02   4.800000E+02   4.800000E+02   4.800000E+02   4.800000E+02   4.800000E+02   4.800000E+02   4.800000E+02   4.800000E+02   4.800000E+02   4.800000E+02   4.800000E+02   4.800000E+02   4.800000E+02   4.800000E+02   4.800000E+02   4.800000E+02   4.800000E+02   4.800000E+02   4.800000E+02   4.800000E+02   4.800000E+02   4.800000E+02   4.800000E+02   4.800000E+02   4.800000E+02   4.800000E+02   4.800000E+02   4.800000E+02
   4.800000E+02   4.800000E+02   4.800000E+02   4.800000E+02   4.800000E+02   4.800000E+02   4.800000E+02   4.800000E+02   4.800000E+02   4.800000E+02   4.800000E+02   4.800000E+02   4.800000E+02   4.800000E+02   4.800000E+02   4.800000E+02   4.800000E+02   4.800000E+02   4.800000E+02   4.800000E+02   4.800000E+02   4.800000E+02   4.800000E+02   4.800000E+02   4.800000E+02   4.800000E+02   4.800000E+02   4.800000E+02   4.800000E+02   4.800000E+02   4.800000E+02   4.800000E+02   4.800000E+02   4.800000E+02   4.800000E+02   4.800000E+02   4.800000E+02   4.800000E+02   4.800000E+02   4.800000E+02   4.800000E+02   4.800000E+02   4.800000E+02   4.800000E+02   4.800000E+02   4.800000E+02   4.800000E+02   4.800000E+02   4.800000E+02   4.800000E+02   4.800000E+02   4.800000E+02   4.800000E+02   4.800000E+02   4.800000E+02   4.800000E+02   4.800000E+02   4.800000E+02   4.800000E+02   4.800000E+02   4.800000E+02   4.800000E+02   4.800000E+02   4.800000E+02   4.800000E+02   4.800000E+02   4.800000E+02   4.800000E+02   4.800000E+02   4.800000E+02   4.800000E+02   4.800000E+02   4.800000E+02   4.800000E+02   4.800000E+02
   4.800000E+02   4.800000E+02   4.800000E+02   4.800000E+02   4.800000E+02   4.800000E+02   4.800000E+02   4.800000E+02   4.800000E+02   4.800000E+02   4.800000E+02   4.800000E+02   4.800000E+02   4.800000E+02   4.800000E+02   4.800000E+02   4.800000E+02   4.800000E+02   4.800000E+02   4.800000E+02   4.800000E+02   4.800000E+02   4.800000E+02   4.800000E+02   4.800000E+02   4.800000E+02   4.800000E+02   4.800000E+02   4.800000E+02   4.800000E+02   4.800000E+02   4.800000E+02   4.800000E+02   4.800000E+02   4.800000E+02   4.800000E+02   4.800000E+02   4.800000E+02   4.800000E+02   4.800000E+02   4.800000E+02   4.800000E+02   4.800000E+02   4.800000E+02   4.800000E+02   4.800000E+02   4.800000E+02   4.800000E+02   4.800000E+02   4.800000E+02   4.800000E+02   4.800000E+02   4.800000E+02   4.800000E+02   4.800000E+02   4.800000E+02   4.800000E+02   4.800000E+02   4.800000E+02   4.800000E+02   4.800000E+02   4.800000E+02   4.800000E+02   4.800000E+02   4.800000E+02   4.800000E+02   4.800000E+02   4.800000E+02   4.800000E+02   4.800000E+02   4.800000E+02   4.800000E+02   4.800000E+02   4.800000E+02   4.800000E+02
   4.800000E+02   4.800000E+02   4.800000E+02   4.800000E+02   4.800000E+02   4.800000E+02   4.800000E+02   4.800000E+02   4.800000E+02   4.800000E+02   4.800000E+02   4.800000E+02   4.800000E+02   4.800000E+02   4.800000E+02   4.800000E+02   4.800000E+02   4.800000E+02   4.800000E+02   4.800000E+02   4.800000E+02   4.800000E+02   4.800000E+02   4.800000E+02   4.800000E+02   4.800000E+02   4.800000E+02   4.800000E+02   4.800000E+02   4.800000E+02   4.800000E+02   4.800000E+02   4.800000E+02   4.800000E+02   4.800000E+02   4.800000E+02   4.800000E+02   4.800000E+02   4.800000E+02   4.800000E+02   4.800000E+02   4.800000E+02   4.800000E+02   4.800000E+02   4.800000E+02   4.800000E+02   4.800000E+02   4.800000E+02   4.800000E+02   4.800000E+02   4.800000E+02   4.800000E+02   4.800000E+02   4.800000E+02   4.800000E+02   4.800000E+02   4.800000E+02   4.800000E+02   4.800000E+02   4.800000E+02   4.800000E+02   4.800000E+02   4.800000E+02   4.800000E+02   4.800000E+02   4.800000E+02   4.800000E+02   4.800000E+02   4.800000E+02   4.800000E+02   4.800000E+02   4.800000E+02   4.800000E+02   4.800000E+02   4.800000E+02
   4.800000E+02   4.800000E+02   4.800000E+02   4.800000E+02   4.800000E+02   4.800000E+02   4.800000E+02   4.800000E+02   4.800000E+02   4.800000E+02   4.800000E+02   4.800000E+02   4.800000E+02   4.800000E+02   4.800000E+02   4.800000E+02   4.800000E+02   4.800000E+02   4.800000E+02   4.800000E+02   4.800000E+02   4.800000E+02   4.800000E+02   4.800000E+02   4.800000E+02   4.800000E+02   4.800000E+02   4.800000E+02   4.800000E+02   4.800000E+02   4.800000E+02   4.800000E+02   4.800000E+02   4.800000E+02   4.800000E+02   4.800000E+02   4.800000E+02   4.800000E+02   4.800000E+02   4.800000E+02   4.800000E+02   4.800000E+02   4.800000E+02   4.800000E+02   4.800000E+02   4.800000E+02   4.800000E+02   4.800000E+02   4.800000E+02   4.800000E+02   4.800000E+02   4.800000E+02   4.800000E+02   4.800000E+02   4.800000E+02   4.800000E+02   4.800000E+02   4.800000E+02   4.800000E+02   4.800000E+02   4.800000E+02   4.800000E+02   4.800000E+02   4.800000E+02   4.800000E+02   4.800000E+02   4.800000E+02   4.800000E+02   4.800000E+02   4.800000E+02   4.800000E+02   4.800000E+02   4.800000E+02   4.800000E+02   4.800000E+02
   4.800000E+02   4.800000E+02   4.800000E+02   4.800000E+02   4.800000E+02   4.800000E+02   4.800000E+02   4.800000E+02   4.800000E+02   4.800000E+02   4.800000E+02   4.800000E+02   4.800000E+02   4.800000E+02   4.800000E+02   4.800000E+02   4.800000E+02   4.800000E+02   4.800000E+02   4.800000E+02   4.800000E+02   4.800000E+02   4.800000E+02   4.800000E+02   4.800000E+02   4.800000E+02   4.800000E+02   4.800000E+02   4.800000E+02   4.800000E+02   4.800000E+02   4.800000E+02   4.800000E+02   4.800000E+02   4.800000E+02   4.800000E+02   4.800000E+02   4.800000E+02   4.800000E+02   4.800000E+02   4.800000E+02   4.800000E+02   4.800000E+02   4.800000E+02   4.800000E+02   4.800000E+02   4.800000E+02   4.800000E+02   4.800000E+02   4.800000E+02   4.800000E+02   4.800000E+02   4.800000E+02   4.800000E+02   4.800000E+02   4.800000E+02   4.800000E+02   4.800000E+02   4.800000E+02   4.800000E+02   4.800000E+02   4.800000E+02   4.800000E+02   4.800000E+02   4.800000E+02   4.800000E+02   4.800000E+02   4.800000E+02   4.800000E+02   4.800000E+02   4.800000E+02   4.800000E+02   4.800000E+02   4.800000E+02   4.800000E+02
   4.800000E+02   4.800000E+02   4.800000E+02   4.800000E+02   4.800000E+02   4.800000E+02   4.800000E+02   4.800000E+02   4.800000E+02   4.800000E+02   4.800000E+02   4.800000E+02   4.800000E+02   4.800000E+02   4.800000E+02   4.800000E+02   4.800000E+02   4.800000E+02   4.800000E+02   4.800000E+02   4.800000E+02   4.800000E+02   4.800000E+02   4.800000E+02   4.800000E+02   4.800000E+02   4.800000E+02   4.800000E+02   4.800000E+02   4.800000E+02   4.800000E+02   4.800000E+02   4.800000E+02   4.800000E+02   4.800000E+02   4.800000E+02   4.800000E+02   4.800000E+02   4.800000E+02   4.800000E+02   4.800000E+02   4.800000E+02   4.800000E+02   4.800000E+02   4.800000E+02   4.800000E+02   4.800000E+02   4.800000E+02   4.800000E+02   4.800000E+02   4.800000E+02   4.800000E+02   4.800000E+02   4.800000E+02   4.800000E+02   4.800000E+02   4.800000E+02   4.800000E+02   4.800000E+02   4.800000E+02   4.800000E+02   4.800000E+02   4.800000E+02   4.800000E+02   4.800000E+02   4.800000E+02   4.800000E+02   4.800000E+02   4.800000E+02   4.800000E+02   4.800000E+02   4.800000E+02   4.800000E+02   4.800000E+02   4.800000E+02
   4.800000E+02   4.800000E+02   4.800000E+02   4.800000E+02   4.800000E+02   4.800000E+02   4.800000E+02   4.800000E+02   4.800000E+02   4.800000E+02   4.800000E+02   4.800000E+02   4.800000E+02   4.800000E+02   4.800000E+02   4.800000E+02   4.800000E+02   4.800000E+02   4.800000E+02   4.800000E+02   4.800000E+02   4.800000E+02   4.800000E+02   4.800000E+02   4.800000E+02   4.800000E+02   4.800000E+02   4.800000E+02   4.800000E+02   4.800000E+02   4.800000E+02   4.800000E+02   4.800000E+02   4.800000E+02   4.800000E+02   4.800000E+02   4.800000E+02   4.800000E+02   4.800000E+02   4.800000E+02   4.800000E+02   4.800000E+02   4.800000E+02   4.800000E+02   4.800000E+02   4.800000E+02   4.800000E+02   4.800000E+02   4.800000E+02   4.800000E+02   4.800000E+02   4.800000E+02   4.800000E+02   4.800000E+02   4.800000E+02   4.800000E+02   4.800000E+02   4.800000E+02   4.800000E+02   4.800000E+02   4.800000E+02   4.800000E+02   4.800000E+02   4.800000E+02   4.800000E+02   4.800000E+02   4.800000E+02   4.800000E+02   4.800000E+02   4.800000E+02   4.800000E+02   4.800000E+02   4.800000E+02   4.800000E+02   4.800000E+02
   4.800000E+02   4.800000E+02   4.800000E+02   4.800000E+02   4.800000E+02   4.800000E+02   4.800000E+02   4.800000E+02   4.800000E+02   4.800000E+02   4.800000E+02   4.800000E+02   4.800000E+02   4.800000E+02   4.800000E+02   4.800000E+02   4.800000E+02   4.800000E+02   4.800000E+02   4.800000E+02   4.800000E+02   4.800000E+02   4.800000E+02   4.800000E+02   4.800000E+02   4.800000E+02   4.800000E+02   4.800000E+02   4.800000E+02   4.800000E+02   4.800000E+02   4.800000E+02   4.800000E+02   4.800000E+02   4.800000E+02   4.800000E+02   4.800000E+02   4.800000E+02   4.800000E+02   4.800000E+02   4.800000E+02   4.800000E+02   4.800000E+02   4.800000E+02   4.800000E+02   4.800000E+02   4.800000E+02   4.800000E+02   4.800000E+02   4.800000E+02   4.800000E+02   4.800000E+02   4.800000E+02   4.800000E+02   4.800000E+02   4.800000E+02   4.800000E+02   4.800000E+02   4.800000E+02   4.800000E+02   4.800000E+02   4.800000E+02   4.800000E+02   4.800000E+02   4.800000E+02   4.800000E+02   4.800000E+02   4.800000E+02   4.800000E+02   4.800000E+02   4.800000E+02   4.800000E+02   4.800000E+02   4.800000E+02   4.800000E+02
   4.800000E+02   4.800000E+02   4.800000E+02   4.800000E+02   4.800000E+02   4.800000E+02   4.800000E+02   4.800000E+02   4.800000E+02   4.800000E+02   4.800000E+02   4.800000E+02   4.800000E+02   4.800000E+02   4.800000E+02   4.800000E+02   4.800000E+02   4.800000E+02   4.800000E+02   4.800000E+02   4.800000E+02   4.800000E+02   4.800000E+02   4.800000E+02   4.800000E+02   4.800000E+02   4.800000E+02   4.800000E+02   4.800000E+02   4.800000E+02   4.800000E+02   4.800000E+02   4.800000E+02   4.800000E+02   4.800000E+02   4.800000E+02   4.800000E+02   4.800000E+02   4.800000E+02   4.800000E+02   4.800000E+02   4.800000E+02   4.800000E+02   4.800000E+02   4.800000E+02   4.800000E+02   4.800000E+02   4.800000E+02   4.800000E+02   4.800000E+02   4.800000E+02   4.800000E+02   4.800000E+02   4.800000E+02   4.800000E+02   4.800000E+02   4.800000E+02   4.800000E+02   4.800000E+02   4.800000E+02   4.800000E+02   4.800000E+02   4.800000E+02   4.800000E+02   4.800000E+02   4.800000E+02   4.800000E+02   4.800000E+02   4.800000E+02   4.800000E+02   4.800000E+02   4.800000E+02   4.800000E+02   4.800000E+02   4.800000E+02
   4.800000E+02   4.800000E+02   4.800000E+02   4.800000E+02   4.800000E+02   4.800000E+02   4.800000E+02   4.800000E+02   4.800000E+02   4.800000E+02   4.800000E+02   4.800000E+02   4.800000E+02   4.800000E+02   4.800000E+02   4.800000E+02   4.800000E+02   4.800000E+02   4.800000E+02   4.800000E+02   4.800000E+02   4.800000E+02   4.800000E+02   4.800000E+02   4.800000E+02   4.800000E+02   4.800000E+02   4.800000E+02   4.800000E+02   4.800000E+02   4.800000E+02   4.800000E+02   4.800000E+02   4.800000E+02   4.800000E+02   4.800000E+02   4.800000E+02   4.800000E+02   4.800000E+02   4.800000E+02   4.800000E+02   4.800000E+02   4.800000E+02   4.800000E+02   4.800000E+02   4.800000E+02   4.800000E+02   4.800000E+02   4.800000E+02   4.800000E+02   4.800000E+02   4.800000E+02   4.800000E+02   4.800000E+02   4.800000E+02   4.800000E+02   4.800000E+02   4.800000E+02   4.800000E+02   4.800000E+02   4.800000E+02   4.800000E+02   4.800000E+02   4.800000E+02   4.800000E+02   4.800000E+02   4.800000E+02   4.800000E+02   4.800000E+02   4.800000E+02   4.800000E+02   4.800000E+02   4.800000E+02   4.800000E+02   4.800000E+02
   4.800000E+02   4.800000E+02   4.800000E+02   4.800000E+02   4.800000E+02   4.800000E+02   4.800000E+02   4.800000E+02   4.800000E+02   4.800000E+02   4.800000E+02   4.800000E+02   4.800000E+02   4.800000E+02   4.800000E+02   4.800000E+02   4.800000E+02   4.800000E+02   4.800000E+02   4.800000E+02   4.800000E+02   4.800000E+02   4.800000E+02   4.800000E+02   4.800000E+02   4.800000E+02   4.800000E+02   4.800000E+02   4.800000E+02   4.800000E+02   4.800000E+02   4.800000E+02   4.800000E+02   4.800000E+02   4.800000E+02   4.800000E+02   4.800000E+02   4.800000E+02   4.800000E+02   4.800000E+02   4.800000E+02   4.800000E+02   4.800000E+02   4.800000E+02   4.800000E+02   4.800000E+02   4.800000E+02   4.800000E+02   4.800000E+02   4.800000E+02   4.800000E+02   4.800000E+02   4.800000E+02   4.800000E+02   4.800000E+02   4.800000E+02   4.800000E+02   4.800000E+02   4.800000E+02   4.800000E+02   4.800000E+02   4.800000E+02   4.800000E+02   4.800000E+02   4.800000E+02   4.800000E+02   4.800000E+02   4.800000E+02   4.800000E+02   4.800000E+02   4.800000E+02   4.800000E+02   4.800000E+02   4.800000E+02   4.800000E+02
   4.800000E+02   4.800000E+02   4.800000E+02   4.800000E+02   4.800000E+02   4.800000E+02   4.800000E+02   4.800000E+02   4.800000E+02   4.800000E+02   4.800000E+02   4.800000E+02   4.800000E+02   4.800000E+02   4.800000E+02   4.800000E+02   4.800000E+02   4.800000E+02   4.800000E+02   4.800000E+02   4.800000E+02   4.800000E+02   4.800000E+02   4.800000E+02   4.800000E+02   4.800000E+02   4.800000E+02   4.800000E+02   4.800000E+02   4.800000E+02   4.800000E+02   4.800000E+02   4.800000E+02   4.800000E+02   4.800000E+02   4.800000E+02   4.800000E+02   4.800000E+02   4.800000E+02   4.800000E+02   4.800000E+02   4.800000E+02   4.800000E+02   4.800000E+02   4.800000E+02   4.800000E+02   4.800000E+02   4.800000E+02   4.800000E+02   4.800000E+02   4.800000E+02   4.800000E+02   4.800000E+02   4.800000E+02   4.800000E+02   4.800000E+02   4.800000E+02   4.800000E+02   4.800000E+02   4.800000E+02   4.800000E+02   4.800000E+02   4.800000E+02   4.800000E+02   4.800000E+02   4.800000E+02   4.800000E+02   4.800000E+02   4.800000E+02   4.800000E+02   4.800000E+02   4.800000E+02   4.800000E+02   4.800000E+02   4.800000E+02