# GHB package for  MODFLOW-2005, generated by Flopy.
        77         0
        77         0 # stress period 1
         1        39         1           450.0           200.0
         1        38         1           450.0           200.0
         1        37         1           450.0           200.0
         1        36         1           450.0           200.0
         1        35         1           450.0           200.0
         1        34         1           450.0           200.0
         1        33         1           450.0           200.0
         1        32         1           450.0           200.0
         1        31         1           450.0           200.0
         1        30         1           450.0           200.0
         1        29         1           450.0           200.0
         1        28         1           450.0           200.0
         1        27         1           450.0           200.0
         1        26         1           450.0           200.0
         1        25         1           450.0           200.0
         1        24         1           450.0           200.0
         1        23         1           450.0           200.0
         1        22         1           450.0           200.0
         1        21         1           450.0           200.0
         1        20         1           450.0           200.0
         1        19         1           450.0           200.0
         1        18         1           450.0           200.0
         1        17         1           450.0           200.0
         1        16         1           450.0           200.0
         1        15         1           450.0           200.0
         1        14         1           450.0           200.0
         1        13         1           450.0           200.0
         1        12         1           450.0           200.0
         1        11         1           450.0           200.0
         1        10         1           450.0           200.0
         1         9         1           450.0           200.0
         1         8         1           450.0           200.0
         1         7         1           450.0           200.0
         1         6         1           450.0           200.0
         1         5         1           450.0           200.0
         1         4         1           450.0           200.0
         1         3         1           450.0           200.0
         1         2         1           450.0           200.0
         1        39        74           444.0           202.0
         1        38        74           444.0           202.0
         1        37        74           444.0           202.0
         1        36        74           444.0           202.0
         1        35        74           444.0           202.0
         1        34        74           444.0           202.0
         1        33        74           444.0           202.0
         1        32        74           444.0           202.0
         1        31        74           444.0           202.0
         1        30        74           444.0           202.0
         1        29        74           444.0           202.0
         1        28        74           444.0           202.0
         1        27        74           444.0           202.0
         1        26        74           444.0           202.0
         1        25        74           444.0           202.0
         1        24        74           444.0           202.0
         1        23        74           444.0           202.0
         1        22        74           444.0           202.0
         1        21        74           444.0           202.0
         1        20        74           444.0           202.0
         1        19        74           444.0           202.0
         1        18        74           444.0           202.0
         1        17        74           444.0           202.0
         1        16        74           444.0           202.0
         1        15        74           444.0           202.0
         1        14        74           444.0           202.0
         1        13        74           444.0           202.0
         1        12        74           444.0           202.0
         1        11        74           444.0           202.0
         1        10        74           444.0           202.0
         1         9        74           444.0           202.0
         1         8        74           444.0           202.0
         1         7        74           444.0           202.0
         1         6        74           444.0           202.0
         1         5        74           444.0           202.0
         1         4        74           444.0           202.0
         1         3        74           444.0           202.0
         1         2        74           444.0           202.0
         1         1        74           444.0           202.0
